Modified 4 Bus/IEEE 6 Node Base System/4busYDBal_VLL_Node.Txt

LINE-LINE VOLTAGES BY BUS & NODE

Bus       Node    VLN (kV)   Angle      pu     Base kV 

SOURCEBUS 1-2      12.47 /_   30.0   0.99997    12.470
   -      2-3      12.47 /_  -90.0   0.99997    12.470
   -      3-1      12.47 /_  150.0   0.99997    12.470
N2 ...... 1-2     12.317 /_   29.7   0.98771    12.470
   -      2-3     12.327 /_  -90.4   0.98856    12.470
   -      3-1     12.296 /_  149.6   0.98605    12.470
N3 ...... 1-2     3.8611 /_   -4.0   0.92816     4.160
   -      2-3     3.8716 /_ -124.0   0.93067     4.160
   -      3-1      3.865 /_  115.8   0.92909     4.160
N4 ...... 1-2     3.3182 /_   -8.9   0.79765     4.160
   -      2-3     3.3866 /_ -130.7   0.81409     4.160
   -      3-1     3.2612 /_  109.1   0.78395     4.160
N5 ...... 1-2     3.2967 /_   -9.1   0.79248     4.160
   -      2-3     3.3679 /_ -131.0    0.8096     4.160
   -      3-1     3.2377 /_  108.8    0.7783     4.160
N6 ...... 1-2     3.2753 /_   -9.4   0.78733     4.160
   -      2-3     3.3493 /_ -131.3   0.80513     4.160
   -      3-1     3.2144 /_  108.5   0.77268     4.160
